/*--------------------------------*- C++ -*----------------------------------*\
| =========                 |                                                 |
| \\      /  F ield         | OpenFOAM: The Open Source CFD Toolbox           |
|  \\    /   O peration     | Version:  v4.x                                  |
|   \\  /    A nd           | Web:      www.OpenFOAM.com                      |
|    \\/     M anipulation  |                                                 |
\*---------------------------------------------------------------------------*/
FoamFile
{
    version     2.0;
    format      ascii;
    class       dictionary;
    location    "system";
    object      blockMeshDict;
}
// * * * * * * * * * * * * * * * * * * * * * * * * * * * * * * * * * * * * * //

convertToMeters 1;

vertices
(
	(-0.07071067811865477 -0.07071067811865475 0.0) 		 //0
	(0.07071067811865477 -0.07071067811865475 0.0) 		 //1
	(0.04878048780487806 -0.04878048780487806 0.0) 		 //2
	(-0.04878048780487806 -0.04878048780487806 0.0) 		 //3
	(-0.04878048780487806 0.04878048780487806 0.0) 		 //4
	(0.04878048780487806 0.04878048780487806 0.0) 		 //5
	(0.07071067811865477 0.07071067811865475 0.0) 		 //6
	(-0.07071067811865477 0.07071067811865475 0.0) 		 //7
	(-0.07071067811865477 -0.07071067811865475 0.4) 		 //8
	(0.07071067811865477 -0.07071067811865475 0.4) 		 //9
	(0.04878048780487806 -0.04878048780487806 0.4) 		 //10
	(-0.04878048780487806 -0.04878048780487806 0.4) 		 //11
	(-0.04878048780487806 0.04878048780487806 0.4) 		 //12
	(0.04878048780487806 0.04878048780487806 0.4) 		 //13
	(0.07071067811865477 0.07071067811865475 0.4) 		 //14
	(-0.07071067811865477 0.07071067811865475 0.4) 		 //15
);

blocks
(
	 hex ( 3  2  5  4  11  10  13  12 )	(10 10 40)	simpleGrading (1 1 1)
	 hex ( 0  1  2  3  8  9  10  11 )	(10 3 40)	simpleGrading (1 1 1)
	 hex ( 2  1  6  5  10  9  14  13 )	(3 10 40)	simpleGrading (1 1 1)
	 hex ( 4  5  6  7  12  13  14  15 )	(10 3 40)	simpleGrading (1 1 1)
	 hex ( 0  3  4  7  8  11  12  15 )	(3 10 40)	simpleGrading (1 1 1)
);

edges
(
	 arc 0 1	(-1.8369701987210297e-17 -0.1 0.0)
	 arc 1 6	(0.1 -2.4492935982947065e-17 0.0)
	 arc 6 7	(6.123233995736766e-18 0.1 0.0)
	 arc 7 0	(-0.1 1.2246467991473533e-17 0.0)
	 arc 8 9	(-1.8369701987210297e-17 -0.1 0.4)
	 arc 9 14	(0.1 -2.4492935982947065e-17 0.4)
	 arc 14 15	(6.123233995736766e-18 0.1 0.4)
	 arc 15 8	(-0.1 1.2246467991473533e-17 0.4)
);

boundary
(
	up
	{
		type patch;
		faces
		(
			(0 1 2 3)
			(3 2 5 4)
			(1 6 5 2)
			(6 7 4 5)
			(0 3 4 7)
		);
	}
	bottom
	{
		type wall;
		faces
		(
			(8 9 10 11)
			(11 10 13 12)
			(9 14 13 10)
			(14 15 12 13)
			(8 11 12 15)
		);
	}
	latWalls
	{
		type wall;
		faces
		(
			(0 1 8 9)
			(1 6 9 14)
			(6 7 14 15)
			(7 0 15 8)
		);
	}
);

mergPatchPairs
(
);

// * * * * * * * * * * * * * * * * * * * * * * * * * * * * * * * * * * * * * //